8

C          0.0            0.0            0.0
C          0.0            1.78400        1.78400
C          1.78400        1.78400        0.0
C          1.78400        0.0            1.98400
C          2.67500        0.89200        2.67500
C          0.89200        0.89200        0.89200
C          0.89200        2.67500        2.67500
C          2.67500        2.67500        0.89200
