10
ciaocioa
Cl      -0.549735     0.019764    -0.536635
Pb      -2.190848    -0.095867    -1.779756
Kr       3.233769     4.755135     3.500560
Ga       4.391425    -3.405778    -1.436856
Sm       1.018885     1.754537    -2.549550
Nb       2.683220     2.483634    -1.746852
Yb       3.173643     3.651730     3.366439
No      -0.814680    -4.970332     2.553330
He      -3.404779    -1.241596    -2.593813
Pt       1.078441     3.702638     1.350924
10
ciaocioa
Cl       3.090393    -1.471157    -4.948535
Pb      -1.177288     0.578839     4.239606
Kr      -2.979719    -1.551104    -3.933338
Ga       3.975274    -1.429794     3.605251
Sm      -4.557187    -4.300056     4.955611
Nb      -2.196412     1.705476     3.343242
Yb       3.069009     0.665316    -0.270743
No      -2.560815     2.522684     1.192547
He      -2.576620    -0.437085    -4.031559
Pt       0.523168     1.881732     3.456532
10
ciaocioa
Cl       3.805585     1.186144    -1.469745
Pb      -0.103776    -3.320675    -4.160553
Kr      -2.895645     0.414988    -1.425981
Ga      -4.738074     0.178519     0.389297
Sm      -3.456816     1.832567    -1.322083
Nb      -3.579212     0.505873    -4.258505
Yb       2.389728    -1.350802     3.025319
No      -2.892674    -1.098473    -1.914005
He       0.518537     4.688541     3.597229
Pt      -3.973137    -0.889869     4.262093
10
ciaocioa
Cl       2.192699    -1.346664     4.186233
Pb      -4.294993     3.543968     4.990139
Kr       1.101148    -1.897221    -3.312497
Ga      -0.502006     1.026325     4.076507
Sm      -0.129690    -3.808647    -0.632894
Nb      -4.320021    -0.765816    -3.577925
Yb       1.451414     3.682780    -2.432293
No       4.121869     3.296985     1.944487
He       4.079413    -0.830222    -0.000461
Pt      -4.222906     4.692321     1.500046

