2

Na         0.00000        0.00000        0.00000
Cl         0.00000        0.00000        1.24928

2

Na         0.00000        0.00000        0.37418
Cl        -0.00000       -0.00000        0.87510

2

Na         0.00000        0.00000        0.37192
Cl        -0.00000       -0.00000        0.87736

2

Na         0.00000        0.00000        0.35364
Cl        -0.00000       -0.00000        0.89564

2

Na         0.00304        0.00400        0.34125
Cl        -0.00304       -0.00400        0.90804

2

Na         1.67634        2.59262        0.27411
Cl        -1.67634       -2.59262        0.97517

2

Na         5.99994        0.39659        0.26151
Cl        -5.99994       -0.39659        0.98777

2

Na         6.75938       -0.24113        0.26285
Cl        -6.75938        0.24113        0.98643

2

Na         6.79301       -0.26369        0.26283
Cl        -6.79301        0.26369        0.98645

2

Na         6.76374       -0.26253        0.26306
Cl        -6.76374        0.26253        0.98622

2

Na         6.74945       -0.26357        0.26316
Cl        -6.74945        0.26357        0.98612

2

Na         6.75153       -0.26390        0.26310
Cl        -6.75153        0.26390        0.98618

2

Na         6.76373       -0.26602        0.26243
Cl        -6.76373        0.26602        0.98685

2

Na         6.77843       -0.26841        0.26090
Cl        -6.77843        0.26841        0.98838

2

Na         6.80783       -0.27194        0.25616
Cl        -6.80783        0.27194        0.99312

2

Na         6.86554       -0.27393        0.24483
Cl        -6.86554        0.27393        1.00445

2

Na         6.96483       -0.27222        0.22831
Cl        -6.96483        0.27222        1.02097

2

Na         6.99578       -0.27056        0.22400
Cl        -6.99578        0.27056        1.02529

2

Na         6.99894       -0.26687        0.22443
Cl        -6.99894        0.26687        1.02485

2

Na         7.00036       -0.26319        0.22547
Cl        -7.00036        0.26319        1.02381

2

Na         7.00199       -0.26285        0.22573
Cl        -7.00199        0.26285        1.02355

2

Na         7.00965       -0.26285        0.22727
Cl        -7.00965        0.26285        1.02201

2

Na         7.01172       -0.26385        0.22774
Cl        -7.01172        0.26385        1.02154

2

Na         7.01177       -0.26452        0.22779
Cl        -7.01177        0.26452        1.02149

2

Na         7.01162       -0.26459        0.22776
Cl        -7.01162        0.26459        1.02152

2

Na         7.01160       -0.26459        0.22776
Cl        -7.01160        0.26459        1.02152

2
# CELL(abcABC):    1.00000     2.00000     3.00000    90.00000    90.00000    90.00000  Traj: positions{angstrom} Step:           0  Bead:       0 
      Na  0.00000e+00  0.00000e+00  0.00000e+00
      Cl  0.00000e+00  0.00000e+00  1.24928e+00
2
# CELL(abcABC):    1.00000     2.00000     3.00000    90.00000    90.00000    90.00000  Traj: positions{angstrom} Step:           1  Bead:       0 
      Na  1.07117e-16  1.07535e-16  3.74185e-01
      Cl -1.06945e-16 -1.07535e-16  8.75097e-01
2
# CELL(abcABC):    1.00000     2.00000     3.00000    90.00000    90.00000    90.00000  Traj: positions{angstrom} Step:           2  Bead:       0 
      Na  3.21045e-12  3.58421e-12  3.71922e-01
      Cl -3.50633e-12 -3.58420e-12  8.77359e-01
2
# CELL(abcABC):    1.00000     2.00000     3.00000    90.00000    90.00000    90.00000  Traj: positions{angstrom} Step:           3  Bead:       0 
      Na  3.91593e-07  4.53569e-07  3.53645e-01
      Cl -3.91591e-07 -4.53569e-07  8.95637e-01
2
# CELL(abcABC):    1.00000     2.00000     3.00000    90.00000    90.00000    90.00000  Traj: positions{angstrom} Step:           4  Bead:       0 
      Na  3.04435e-03  4.00132e-03  3.41245e-01
      Cl -3.04435e-03 -4.00132e-03  9.08036e-01
2
# CELL(abcABC):    1.00000     2.00000     3.00000    90.00000    90.00000    90.00000  Traj: positions{angstrom} Step:           5  Bead:       0 
      Na  1.67634e+00  2.59262e+00  2.74108e-01
      Cl -1.67634e+00 -2.59262e+00  9.75174e-01
2
# CELL(abcABC):    1.00000     2.00000     3.00000    90.00000    90.00000    90.00000  Traj: positions{angstrom} Step:           6  Bead:       0 
      Na  5.99994e+00  3.96594e-01  2.61512e-01
      Cl -5.99994e+00 -3.96594e-01  9.87770e-01
2
# CELL(abcABC):    1.00000     2.00000     3.00000    90.00000    90.00000    90.00000  Traj: positions{angstrom} Step:           7  Bead:       0 
      Na  6.75938e+00 -2.41128e-01  2.62847e-01
      Cl -6.75938e+00  2.41128e-01  9.86434e-01
2
# CELL(abcABC):    1.00000     2.00000     3.00000    90.00000    90.00000    90.00000  Traj: positions{angstrom} Step:           8  Bead:       0 
      Na  6.79301e+00 -2.63689e-01  2.62826e-01
      Cl -6.79301e+00  2.63689e-01  9.86455e-01
2
# CELL(abcABC):    1.00000     2.00000     3.00000    90.00000    90.00000    90.00000  Traj: positions{angstrom} Step:           9  Bead:       0 
      Na  6.76374e+00 -2.62529e-01  2.63063e-01
      Cl -6.76374e+00  2.62529e-01  9.86219e-01
2
# CELL(abcABC):    1.00000     2.00000     3.00000    90.00000    90.00000    90.00000  Traj: positions{angstrom} Step:          10  Bead:       0 
      Na  6.74945e+00 -2.63569e-01  2.63161e-01
      Cl -6.74945e+00  2.63569e-01  9.86121e-01
2
# CELL(abcABC):    1.00000     2.00000     3.00000    90.00000    90.00000    90.00000  Traj: positions{angstrom} Step:          11  Bead:       0 
      Na  6.75153e+00 -2.63897e-01  2.63104e-01
      Cl -6.75153e+00  2.63897e-01  9.86177e-01
2
# CELL(abcABC):    1.00000     2.00000     3.00000    90.00000    90.00000    90.00000  Traj: positions{angstrom} Step:          12  Bead:       0 
      Na  6.76373e+00 -2.66022e-01  2.62429e-01
      Cl -6.76373e+00  2.66022e-01  9.86853e-01
2
# CELL(abcABC):    1.00000     2.00000     3.00000    90.00000    90.00000    90.00000  Traj: positions{angstrom} Step:          13  Bead:       0 
      Na  6.77843e+00 -2.68413e-01  2.60902e-01
      Cl -6.77843e+00  2.68413e-01  9.88379e-01
2
# CELL(abcABC):    1.00000     2.00000     3.00000    90.00000    90.00000    90.00000  Traj: positions{angstrom} Step:          14  Bead:       0 
      Na  6.80783e+00 -2.71944e-01  2.56162e-01
      Cl -6.80783e+00  2.71944e-01  9.93120e-01
2
# CELL(abcABC):    1.00000     2.00000     3.00000    90.00000    90.00000    90.00000  Traj: positions{angstrom} Step:          15  Bead:       0 
      Na  6.86554e+00 -2.73932e-01  2.44830e-01
      Cl -6.86554e+00  2.73932e-01  1.00445e+00
2
# CELL(abcABC):    1.00000     2.00000     3.00000    90.00000    90.00000    90.00000  Traj: positions{angstrom} Step:          16  Bead:       0 
      Na  6.96483e+00 -2.72219e-01  2.28309e-01
      Cl -6.96483e+00  2.72219e-01  1.02097e+00
2
# CELL(abcABC):    1.00000     2.00000     3.00000    90.00000    90.00000    90.00000  Traj: positions{angstrom} Step:          17  Bead:       0 
      Na  6.99578e+00 -2.70563e-01  2.23996e-01
      Cl -6.99578e+00  2.70563e-01  1.02529e+00
2
# CELL(abcABC):    1.00000     2.00000     3.00000    90.00000    90.00000    90.00000  Traj: positions{angstrom} Step:          18  Bead:       0 
      Na  6.99894e+00 -2.66867e-01  2.24431e-01
      Cl -6.99894e+00  2.66867e-01  1.02485e+00
2
# CELL(abcABC):    1.00000     2.00000     3.00000    90.00000    90.00000    90.00000  Traj: positions{angstrom} Step:          19  Bead:       0 
      Na  7.00036e+00 -2.63188e-01  2.25470e-01
      Cl -7.00036e+00  2.63188e-01  1.02381e+00
2
# CELL(abcABC):    1.00000     2.00000     3.00000    90.00000    90.00000    90.00000  Traj: positions{angstrom} Step:          20  Bead:       0 
      Na  7.00199e+00 -2.62850e-01  2.25730e-01
      Cl -7.00199e+00  2.62850e-01  1.02355e+00
2
# CELL(abcABC):    1.00000     2.00000     3.00000    90.00000    90.00000    90.00000  Traj: positions{angstrom} Step:          21  Bead:       0 
      Na  7.00965e+00 -2.62847e-01  2.27267e-01
      Cl -7.00965e+00  2.62847e-01  1.02201e+00
2
# CELL(abcABC):    1.00000     2.00000     3.00000    90.00000    90.00000    90.00000  Traj: positions{angstrom} Step:          22  Bead:       0 
      Na  7.01172e+00 -2.63846e-01  2.27738e-01
      Cl -7.01172e+00  2.63846e-01  1.02154e+00
2
# CELL(abcABC):    1.00000     2.00000     3.00000    90.00000    90.00000    90.00000  Traj: positions{angstrom} Step:          23  Bead:       0 
      Na  7.01177e+00 -2.64518e-01  2.27792e-01
      Cl -7.01177e+00  2.64518e-01  1.02149e+00
2
# CELL(abcABC):    1.00000     2.00000     3.00000    90.00000    90.00000    90.00000  Traj: positions{angstrom} Step:          24  Bead:       0 
      Na  7.01162e+00 -2.64587e-01  2.27763e-01
      Cl -7.01162e+00  2.64587e-01  1.02152e+00
2
# CELL(abcABC):    1.00000     2.00000     3.00000    90.00000    90.00000    90.00000  Traj: positions{angstrom} Step:          25  Bead:       0 
      Na  7.01160e+00 -2.64589e-01  2.27758e-01
      Cl -7.01160e+00  2.64589e-01  1.02152e+00
